TEL
TELL
TELL
TELLER
TELLER
TELLY
TELETHONS
TELEPHONE
TELEPHONER
TELEPHONY
TELEPHONIC
TELEVANGELISM
TELEVANGELISM
TELEVANGELIST
TELEVANGELIST
TELEVANGELISTS
TELEPHONING
TELEPHONER
TELEPHONERS
TELEPHONE
TELEPHONES
TELEPHONY
TELEPHONIST
TELEPHONISTS
TELEPHONED
TELEVISE
TELEVISING
TELEVISES
TELEVISED
TELEPHOTO
TELEPHOTOGRAPHY
TELEPHOTOGRAPHY
TELEPHOTO
TELEPHOTOS
TELEVISION
TELEVISION
TELEVISIONS
TELUGU
TELECOMMUNICATION
TELECOMMUNICATION
TELECOMMUNICATIONS
TELECOMMUNICATIONS
TELECOMMUTE
TELECOMMUTER
TELECOMMUTING
TELECOMMUTING
TELECOMMUTER
TELECOMMUTERS
TELECOMMUTES
TELECOMMUTED
TELECONFERENCE
TELECONFERENCING
TELECONFERENCING
TELECONFERENCE
TELECONFERENCES
TELECONFERENCED
TELEGENIC
TELEKINESIS
TELEKINESIS
TELEKINETIC
TELEGRAPH
TELEGRAPHER
TELEGRAPHY
TELEGRAPHIC
TELEGRAPHICALLY
TELEGRAPHING
TELEGRAPHER
TELEGRAPHERS
TELEGRAPHESE
TELEGRAPH
TELEGRAPHS
TELEGRAPHY
TELEGRAPHIST
TELEGRAPHIST
TELEGRAPHISTS
TELEGRAPHED
TELEGRAM
TELEGRAM
TELEGRAMS
TELEX
TELUGU
TELEXING
TELEXES
TELEX
TELECAST
TELECASTER
TELEXED
TELECASTING
TELECASTER
TELECASTERS
TELECAST
TELECASTS
TELEOLOGY
TELEOLOGICAL
TELEMARKETER
TELEMARKETING
TELEMARKETING
TELEMARKETER
TELEMARKETERS
TELEMANN
TELEMETER
TELEMETRY
TELEMETRIES
TELEMETRY
TELEMETER
TELEMETERS
TELEMACHUS
TELLING
TELLINGLY
TELNET
TELNET
TELNETTING
TELNETS
TELNETTED
TELEPLAY
TELEPLAY
TELEPLAYS
TELEPROMPTER
TELEPROMPTER
TELEPROMPTER
TELEPROMPTER
TELEPROMPTERS
TELEPRINTER
TELEPRINTER
TELEPRINTERS
TELEPROCESSING
TELEPROCESSING
TELLURIUM
TELLURIUM
TELLER
TELLERS
TELLIES
TELL
TELLS
TELLY
TELESCOPE
TELESCOPIC
TELESCOPICALLY
TELESCOPING
TELESCOPE
TELESCOPES
TELESCOPED
TELESALES
TELETEXT
TELETEXT
TELETEXTS
TELLTALE
TELLTALE
TELLTALES
TELETYPE
TELETYPE
TELETYPEWRITER
TELETYPEWRITER
TELETYPEWRITERS
TELETYPES
TELEWORKER
TELEWORKING
TELEWORKERS
